[General]
network = Base_Network
sim-time-limit = 1h
cpu-time-limit = 300s

#debug-on-errors = true
#record-eventlog = true

[Config BaseNetwork]
description = "Base Routing Network"
repeat = 3
# Total arrival to network:  9700 pps
# Per-Base sending rate:
# Hickam 	- 3950 pps
# Cheyenne	- 1050 pps
# Qatar 	- 1500 pps
# Langley	- 1500 pps
# Ramstein	- 1700 pps
**.srcBase[0].sendIaTime = 	 exponential(0.2532 ms)
**.srcBase[1].sendIaTime = 	 exponential(0.9524 ms)
**.srcBase[2].sendIaTime = 	 exponential(0.6667 ms)
**.srcBase[3].sendIaTime = 	 exponential(0.6667 ms)
**.srcBase[4].sendIaTime = 	 exponential(0.5882 ms)


# Service Times (ms):
# Hickam 	<--> Cheyenne 	=  1.289
# Hickam 	<--> Qatar 		=  0.392
# Hickam 	<--> Langley	=  0.500
# Hickam 	<--> Ramstein 	=  1.289
# Cheyenne 	<--> Qatar		=  1.289
# Cheyenne 	<--> Langley	=  1.289
# Cheyenne 	<--> Ramstein	=  4.471
# Qatar		<--> Langley	=  1.289
# Qatar 	<--> Ramstein	=  2.235
# Langley	<--> Ramstein	=  0.500

# Satellite --> Times:  same as the src/dest service times
**.milSat_100[*].serviceTime 	= exponential( 0.500 ms)
**.milSat_21[*].serviceTime 	= exponential( 0.500 ms)

# Hickam --> Dest times
**.Hickam[0].serviceTime = 0.0s
**.Hickam[1].serviceTime = exponential(1.289 ms)
**.Hickam[2].serviceTime = exponential(0.392 ms)
**.Hickam[3].serviceTime = exponential(0.500 ms)
**.Hickam[4].serviceTime = exponential(1.289 ms)

# Cheyenne --> Dest times
**.Cheyenne[0].serviceTime = exponential(1.289 ms)
**.Cheyenne[1].serviceTime = 0.0s
**.Cheyenne[2].serviceTime = exponential(1.289 ms)
**.Cheyenne[3].serviceTime = exponential(1.289 ms)
**.Cheyenne[4].serviceTime = exponential(4.471 ms)

# Qatar --> Dest times
**.Qatar[0].serviceTime = exponential(0.392 ms)
**.Qatar[1].serviceTime = exponential(1.289 ms)
**.Qatar[2].serviceTime = 0.0s
**.Qatar[3].serviceTime = exponential(1.289 ms)
**.Qatar[4].serviceTime = exponential(2.235 ms)

# Langley --> Dest times
**.Langley[0].serviceTime = exponential(0.500 ms)
**.Langley[1].serviceTime = exponential(1.289 ms)
**.Langley[2].serviceTime = exponential(1.289 ms)
**.Langley[3].serviceTime = 0.0s
**.Langley[4].serviceTime = exponential(0.500 ms)

# Ramstein --> Dest times
**.Ramstein[0].serviceTime = exponential(1.289 ms)
**.Ramstein[1].serviceTime = exponential(4.471 ms)
**.Ramstein[2].serviceTime = exponential(2.235 ms)
**.Ramstein[3].serviceTime = exponential(0.500 ms)
**.Ramstein[4].serviceTime = 0.0s

# Statistic Information:
**.unusedSink.vector-recording = false
**.unusedSink.scalar-recording = false
**.Hickam[0].vector-recording = false
**.Hickam[0].scalar-recording = false
**.Cheyenne[1].vector-recording = false
**.Cheyenne[1].scalar-recording = false
**.Qatar[2].vector-recording = false
**.Qatar[2].scalar-recording = false
**.Langley[3].vector-recording = false
**.Langley[3].scalar-recording = false
**.Ramstein[4].vector-recording = false
**.Ramstein[4].scalar-recording = false
**.milSat_21[*].vector-recording = false
**.milSat_100[*].vector-recording = false

